<?xml version="1.0" encoding="UTF-8"?>

<!-- generated on ons 21 mar 2018 17:47:30 by Netedit Version 0.26.0
<?xml version="1.0" encoding="UTF-8"?>

<configuration xmlns:xsi="http://www.w3.org/2001/XMLSchema-instance" xsi:noNamespaceSchemaLocation="http://sumo.dlr.de/xsd/netedit.exeConfiguration.xsd">

    <output>
        <output-file value="/home/mayara/src/plexe2.0/plexe-veins/examples/cut_in/sumocfg/crappy_merge.net.xml"/>
    </output>

    <processing>
        <no-turnarounds value="true"/>
        <offset.disable-normalization value="true"/>
    </processing>

</configuration>
-->

<net version="0.25" xmlns:xsi="http://www.w3.org/2001/XMLSchema-instance" xsi:noNamespaceSchemaLocation="http://sumo.dlr.de/xsd/net_file.xsd">

    <location netOffset="0.00,0.00" convBoundary="-27.19,36.14,78.35,57.39" origBoundary="10000000000.00,10000000000.00,-10000000000.00,-10000000000.00" projParameter="!"/>

    <edge id=":gneJ1_0" function="internal">
        <lane id=":gneJ1_0_0" index="0" speed="90" length="6.51" shape="13.65,47.37 14.54,48.21 15.84,48.78 17.56,49.06 19.69,49.07"/>
    </edge>
    <edge id=":gneJ1_1" function="internal">
        <lane id=":gneJ1_1_0" index="0" speed="90" length="7.68" shape="12.37,52.12 19.87,52.36"/>
        <lane id=":gneJ1_1_1" index="1" speed="90" length="7.68" shape="12.20,55.41 20.06,55.66"/>
    </edge>
    <edge id=":gneJ2_0" function="internal">
        <lane id=":gneJ2_0_0" index="0" speed="90" length="4.24" shape="51.69,47.27 54.53,50.32"/>
        <lane id=":gneJ2_0_1" index="1" speed="90" length="4.24" shape="51.88,50.57 54.96,53.59"/>
    </edge>
    <edge id=":gneJ5_0" function="internal">
        <lane id=":gneJ5_0_0" index="0" speed="90" length="1.49" shape="4.41,35.30 4.79,35.35 5.12,35.49 5.42,35.70 5.67,35.98"/>
    </edge>

    <edge id="gneE0" from="gneJ0" to="gneJ1" priority="1">
        <lane id="gneE0_0" index="0" speed="90" length="39.37" shape="-26.94,50.14 12.37,52.12"/>
        <lane id="gneE0_1" index="1" speed="90" length="39.37" shape="-27.11,53.43 12.20,55.41"/>
    </edge>
    <edge id="gneE1" from="gneJ1" to="gneJ2" priority="1">
        <lane id="gneE1_0" index="0" speed="90" length="32.06" shape="19.69,49.07 51.69,47.27"/>
        <lane id="gneE1_1" index="1" speed="90" length="32.06" shape="19.87,52.36 51.88,50.57"/>
        <lane id="gneE1_2" index="2" speed="90" length="32.06" shape="20.06,55.66 52.06,53.86"/>
    </edge>
    <edge id="gneE2" from="gneJ2" to="gneJ3" priority="1">
        <lane id="gneE2_0" index="0" speed="90" length="23.38" shape="54.53,50.32 77.71,47.29"/>
        <lane id="gneE2_1" index="1" speed="90" length="23.38" shape="54.96,53.59 78.13,50.56"/>
    </edge>
    <edge id="gneE3" from="gneJ4" to="gneJ5" priority="1">
        <lane id="gneE3_0" index="0" speed="90" length="26.48" shape="-22.06,34.49 4.41,35.30"/>
    </edge>
    <edge id="gneE4" from="gneJ5" to="gneJ1" priority="1">
        <lane id="gneE4_0" index="0" speed="90" length="13.91" shape="5.67,35.98 13.65,47.37"/>
    </edge>

    <junction id="gneJ0" type="unregulated" x="-27.19" y="55.08" incLanes="" intLanes="" shape="-27.19,55.03 -26.86,48.54"/>
    <junction id="gneJ1" type="priority" x="18.65" y="57.39" incLanes="gneE4_0 gneE0_0 gneE0_1" intLanes=":gneJ1_0_0 :gneJ1_1_0 :gneJ1_1_1" shape="20.15,57.26 19.60,47.47 14.96,46.46 12.34,48.29 12.45,50.52 12.12,57.01">
        <request index="0" response="000" foes="000" cont="0"/>
        <request index="1" response="000" foes="000" cont="0"/>
        <request index="2" response="000" foes="000" cont="0"/>
    </junction>
    <junction id="gneJ2" type="priority" x="53.64" y="55.43" incLanes="gneE1_0 gneE1_1 gneE1_2" intLanes=":gneJ2_0_0 :gneJ2_0_1" shape="55.16,55.18 54.32,48.73 51.60,45.68 52.15,55.46">
        <request index="0" response="00" foes="00" cont="0"/>
        <request index="1" response="00" foes="00" cont="0"/>
    </junction>
    <junction id="gneJ3" type="unregulated" x="78.35" y="52.19" incLanes="gneE2_0 gneE2_1" intLanes="" shape="77.50,45.70 78.34,52.14"/>
    <junction id="gneJ4" type="unregulated" x="-22.11" y="36.14" incLanes="" intLanes="" shape="-22.11,36.09 -22.01,32.89"/>
    <junction id="gneJ5" type="priority" x="4.33" y="36.95" incLanes="gneE3_0" intLanes=":gneJ5_0_0" shape="4.36,36.90 6.98,35.07 4.45,33.70 4.36,36.90">
        <request index="0" response="0" foes="0" cont="0"/>
    </junction>

    <connection from="gneE0" to="gneE1" fromLane="0" toLane="1" pass="1" via=":gneJ1_1_0" dir="s" state="M"/>
    <connection from="gneE0" to="gneE1" fromLane="1" toLane="2" pass="1" via=":gneJ1_1_1" dir="s" state="M"/>
    <connection from="gneE1" to="gneE2" fromLane="0" toLane="0" via=":gneJ2_0_0" dir="s" state="M"/>
    <connection from="gneE1" to="gneE2" fromLane="1" toLane="1" via=":gneJ2_0_1" dir="s" state="M"/>
    <connection from="gneE3" to="gneE4" fromLane="0" toLane="0" via=":gneJ5_0_0" dir="l" state="M"/>
    <connection from="gneE4" to="gneE1" fromLane="0" toLane="0" pass="1" via=":gneJ1_0_0" dir="r" state="M"/>

    <connection from=":gneJ1_0" to="gneE1" fromLane="0" toLane="0" dir="s" state="M"/>
    <connection from=":gneJ1_1" to="gneE1" fromLane="0" toLane="1" dir="s" state="M"/>
    <connection from=":gneJ1_1" to="gneE1" fromLane="1" toLane="2" dir="s" state="M"/>
    <connection from=":gneJ2_0" to="gneE2" fromLane="0" toLane="0" dir="s" state="M"/>
    <connection from=":gneJ2_0" to="gneE2" fromLane="1" toLane="1" dir="s" state="M"/>
    <connection from=":gneJ5_0" to="gneE4" fromLane="0" toLane="0" dir="s" state="M"/>

</net>
