 <additional>
    <edgeData id="measurement1" file="output_edge"/>
    <laneData id="measurement1" file="output_lane"/>
 </additional>