<?xml version="1.0" encoding="UTF-8"?>

<!-- generated on fre 23 mar 2018 19:02:50 by Netedit Version 0.26.0
<?xml version="1.0" encoding="UTF-8"?>

<configuration xmlns:xsi="http://www.w3.org/2001/XMLSchema-instance" xsi:noNamespaceSchemaLocation="http://sumo.dlr.de/xsd/netedit.exeConfiguration.xsd">

    <output>
        <output-file value="/home/mayara/src/plexe2.0/plexe-veins/examples/cut_in/sumocfg/new_merging.net.xml"/>
    </output>

    <processing>
        <no-turnarounds value="true"/>
        <offset.disable-normalization value="true"/>
    </processing>

</configuration>
-->

<net version="0.25" xmlns:xsi="http://www.w3.org/2001/XMLSchema-instance" xsi:noNamespaceSchemaLocation="http://sumo.dlr.de/xsd/net_file.xsd">

    <location netOffset="0.00,0.00" convBoundary="0.00,-262.11,4200.00,0.00" origBoundary="10000000000.00,10000000000.00,-10000000000.00,-10000000000.00" projParameter="!"/>

    <edge id=":gneJ1_0" function="internal">
        <lane id=":gneJ1_0_0" index="0" speed="50.00" length="8.77" shape="693.02,-9.85 694.11,-9.15 695.89,-8.65 698.35,-8.35 701.50,-8.25"/>
    </edge>
    <edge id=":gneJ1_1" function="internal">
        <lane id=":gneJ1_1_0" index="0" speed="50.00" length="9.08" shape="692.42,-4.95 701.50,-4.95"/>
        <lane id=":gneJ1_1_1" index="1" speed="50.00" length="9.08" shape="692.42,-1.65 701.50,-1.65"/>
    </edge>
    <edge id=":gneJ3_0" function="internal">
        <lane id=":gneJ3_0_0" index="0" speed="50.00" length="4.46" shape="848.50,-8.25 851.50,-4.95"/>
        <lane id=":gneJ3_0_1" index="1" speed="50.00" length="4.46" shape="848.50,-4.95 851.50,-1.65"/>
    </edge>

    <edge id="gneE0" from="gneJ0" to="gneJ1" priority="1" length="700.00">
        <lane id="gneE0_0" index="0" speed="50.00" length="700.00" shape="0.00,-4.95 692.42,-4.95"/>
        <lane id="gneE0_1" index="1" speed="50.00" length="700.00" shape="0.00,-1.65 692.42,-1.65"/>
    </edge>
    <edge id="gneE1" from="gneJ2" to="gneJ1" priority="1" length="524.22">
        <lane id="gneE1_0" index="0" speed="50.00" length="524.22" shape="455.19,-263.24 693.02,-9.85"/>
    </edge>
    <edge id="gneE2" from="gneJ1" to="gneJ3" priority="1" length="150.00">
        <lane id="gneE2_0" index="0" speed="50.00" length="150.00" shape="701.50,-8.25 848.50,-8.25"/>
        <lane id="gneE2_1" index="1" speed="50.00" length="150.00" shape="701.50,-4.95 848.50,-4.95"/>
        <lane id="gneE2_2" index="2" speed="50.00" length="150.00" shape="701.50,-1.65 848.50,-1.65"/>
    </edge>
    <edge id="gneE3" from="gneJ3" to="gneJ4" priority="1" length="3350.00">
        <lane id="gneE3_0" index="0" speed="50.00" length="3350.00" shape="851.50,-4.95 4200.00,-4.95"/>
        <lane id="gneE3_1" index="1" speed="50.00" length="3350.00" shape="851.50,-1.65 4200.00,-1.65"/>
    </edge>

    <junction id="gneJ0" type="unregulated" x="0.00" y="0.00" incLanes="" intLanes="" shape="0.00,-0.05 0.00,-6.55"/>
    <junction id="gneJ1" type="priority" x="700.00" y="0.00" incLanes="gneE1_0 gneE0_0 gneE0_1" intLanes=":gneJ1_0_0 :gneJ1_1_0 :gneJ1_1_1" shape="701.50,-0.05 701.50,-9.85 694.19,-10.94 691.85,-8.75 692.42,-6.55 692.42,-0.05">
        <request index="0" response="000" foes="000" cont="0"/>
        <request index="1" response="000" foes="000" cont="0"/>
        <request index="2" response="000" foes="000" cont="0"/>
    </junction>
    <junction id="gneJ2" type="unregulated" x="453.99" y="-262.11" incLanes="" intLanes="" shape="454.03,-262.14 456.36,-264.33"/>
    <junction id="gneJ3" type="priority" x="850.00" y="0.00" incLanes="gneE2_0 gneE2_1 gneE2_2" intLanes=":gneJ3_0_0 :gneJ3_0_1" shape="851.50,-0.05 851.50,-6.55 848.50,-9.85 848.50,-0.05">
        <request index="0" response="00" foes="00" cont="0"/>
        <request index="1" response="00" foes="00" cont="0"/>
    </junction>
    <junction id="gneJ4" type="unregulated" x="4200.00" y="0.00" incLanes="gneE3_0 gneE3_1" intLanes="" shape="4200.00,-6.55 4200.00,-0.05"/>

    <connection from="gneE0" to="gneE2" fromLane="0" toLane="1" via=":gneJ1_1_0" dir="s" state="M"/>
    <connection from="gneE0" to="gneE2" fromLane="1" toLane="2" via=":gneJ1_1_1" dir="s" state="M"/>
    <connection from="gneE1" to="gneE2" fromLane="0" toLane="0" via=":gneJ1_0_0" dir="r" state="M"/>
    <connection from="gneE2" to="gneE3" fromLane="0" toLane="0" via=":gneJ3_0_0" dir="s" state="M"/>
    <connection from="gneE2" to="gneE3" fromLane="1" toLane="0" via=":gneJ3_0_1" dir="s" state="M"/>

    <connection from=":gneJ1_0" to="gneE2" fromLane="0" toLane="0" dir="s" state="M"/>
    <connection from=":gneJ1_1" to="gneE2" fromLane="0" toLane="1" dir="s" state="M"/>
    <connection from=":gneJ1_1" to="gneE2" fromLane="1" toLane="2" dir="s" state="M"/>
    <connection from=":gneJ3_0" to="gneE3" fromLane="0" toLane="0" dir="s" state="M"/>
    <connection from=":gneJ3_0" to="gneE3" fromLane="1" toLane="1" dir="s" state="M"/>

</net>
