<?xml version="1.0" encoding="UTF-8"?>

<!-- generated on fre 27 apr 2018 16:16:48 by Netedit Version 0.26.0
<?xml version="1.0" encoding="UTF-8"?>

<configuration xmlns:xsi="http://www.w3.org/2001/XMLSchema-instance" xsi:noNamespaceSchemaLocation="http://sumo.dlr.de/xsd/netedit.exeConfiguration.xsd">

    <input>
        <sumo-net-file value="/home/mayara/src/plexe2.0/plexe-veins/examples/cut_in/sumocfg/the_merging_highway_no_platoon.net.xml"/>
    </input>

    <output>
        <output-file value="/home/mayara/src/plexe2.0/plexe-veins/examples/cut_in/sumocfg/the_merging_highway_no_platoon.net.xml"/>
    </output>

    <processing>
        <no-turnarounds value="true"/>
        <offset.disable-normalization value="true"/>
        <lefthand value="false"/>
        <junctions.corner-detail value="0"/>
    </processing>

</configuration>
-->

<net version="0.25" xmlns:xsi="http://www.w3.org/2001/XMLSchema-instance" xsi:noNamespaceSchemaLocation="http://sumo.dlr.de/xsd/net_file.xsd">

    <location netOffset="0.00,0.00" convBoundary="0.00,-306.11,4200.00,0.00" origBoundary="-10000000000.00,-10000000000.00,10000000000.00,10000000000.00" projParameter="!"/>

    <edge id=":gneJ1_0" function="internal">
        <lane id=":gneJ1_0_0" index="0" speed="50.00" length="4.43" shape="696.13,-10.39 696.80,-9.45 697.62,-8.78 698.61,-8.38 699.75,-8.25"/>
    </edge>
    <edge id=":gneJ1_1" function="internal">
        <lane id=":gneJ1_1_0" index="0" speed="50.00" length="4.83" shape="694.92,-4.95 699.75,-4.95"/>
        <lane id=":gneJ1_1_1" index="1" speed="50.00" length="4.83" shape="694.92,-1.65 699.75,-1.65"/>
    </edge>
    <edge id=":gneJ3_0" function="internal">
        <lane id=":gneJ3_0_0" index="0" speed="50.00" length="3.49" shape="888.50,-8.25 891.50,-4.95"/>
        <lane id=":gneJ3_0_1" index="1" speed="50.00" length="3.49" shape="888.50,-4.95 891.50,-4.95"/>
        <lane id=":gneJ3_0_2" index="2" speed="50.00" length="3.49" shape="888.50,-1.65 891.50,-1.65"/>
    </edge>

    <edge id="gneE0" from="gneJ0" to="gneJ1" priority="1" length="700.00">
        <lane id="gneE0_0" index="0" speed="50.00" length="700.00" shape="0.00,-4.95 694.92,-4.95"/>
        <lane id="gneE0_1" index="1" speed="50.00" length="700.00" shape="0.00,-1.65 694.92,-1.65"/>
    </edge>
    <edge id="gneE1" from="gneJ2" to="gneJ1" priority="1" length="612.22">
        <lane id="gneE1_0" index="0" speed="50.00" length="612.22" shape="531.62,-306.91 696.13,-10.39"/>
    </edge>
    <edge id="gneE2" from="gneJ1" to="gneJ3" priority="1" length="190.00">
        <lane id="gneE2_0" index="0" speed="50.00" length="190.00" shape="699.75,-8.25 888.50,-8.25"/>
        <lane id="gneE2_1" index="1" speed="50.00" length="190.00" shape="699.75,-4.95 888.50,-4.95"/>
        <lane id="gneE2_2" index="2" speed="50.00" length="190.00" shape="699.75,-1.65 888.50,-1.65"/>
    </edge>
    <edge id="gneE3" from="gneJ3" to="gneJ4" priority="1" length="3310.00">
        <lane id="gneE3_0" index="0" speed="50.00" length="3310.00" shape="891.50,-4.95 4200.00,-4.95"/>
        <lane id="gneE3_1" index="1" speed="50.00" length="3310.00" shape="891.50,-1.65 4200.00,-1.65"/>
    </edge>

    <junction id="gneJ0" type="unregulated" x="0.00" y="0.00" incLanes="" intLanes="" shape="0.00,-0.05 0.00,-6.55"/>
    <junction id="gneJ1" type="priority" x="700.00" y="0.00" incLanes="gneE1_0 gneE0_0 gneE0_1" intLanes=":gneJ1_0_0 :gneJ1_1_0 :gneJ1_1_1" shape="699.75,-0.05 699.75,-9.85 697.52,-11.16 694.73,-9.61 694.92,-6.55 694.92,-0.05">
        <request index="0" response="000" foes="000" cont="0"/>
        <request index="1" response="000" foes="000" cont="0"/>
        <request index="2" response="000" foes="000" cont="0"/>
    </junction>
    <junction id="gneJ2" type="unregulated" x="530.18" y="-306.11" incLanes="" intLanes="" shape="530.22,-306.13 533.02,-307.69"/>
    <junction id="gneJ3" type="zipper" x="890.00" y="0.00" incLanes="gneE2_0 gneE2_1 gneE2_2" intLanes=":gneJ3_0_0 :gneJ3_0_1 :gneJ3_0_2" shape="891.50,-0.05 891.50,-6.55 888.50,-9.85 888.50,-0.05">
        <request index="0" response="000" foes="000" cont="0"/>
        <request index="1" response="000" foes="000" cont="0"/>
        <request index="2" response="000" foes="000" cont="0"/>
    </junction>
    <junction id="gneJ4" type="unregulated" x="4200.00" y="0.00" incLanes="gneE3_0 gneE3_1" intLanes="" shape="4200.00,-6.55 4200.00,-0.05"/>

    <connection from="gneE0" to="gneE2" fromLane="0" toLane="1" via=":gneJ1_1_0" dir="s" state="M"/>
    <connection from="gneE0" to="gneE2" fromLane="1" toLane="2" via=":gneJ1_1_1" dir="s" state="M"/>
    <connection from="gneE1" to="gneE2" fromLane="0" toLane="0" via=":gneJ1_0_0" dir="s" state="M"/>
    <connection from="gneE2" to="gneE3" fromLane="0" toLane="0" via=":gneJ3_0_0" dir="s" state="-"/>
    <connection from="gneE2" to="gneE3" fromLane="1" toLane="0" via=":gneJ3_0_1" dir="s" state="M" pass="true"/>
    <connection from="gneE2" to="gneE3" fromLane="2" toLane="1" via=":gneJ3_0_2" dir="s" state="M"/>

    <connection from=":gneJ1_0" to="gneE2" fromLane="0" toLane="0" dir="s" state="M"/>
    <connection from=":gneJ1_1" to="gneE2" fromLane="0" toLane="1" dir="s" state="M"/>
    <connection from=":gneJ1_1" to="gneE2" fromLane="1" toLane="2" dir="s" state="M"/>
    <connection from=":gneJ3_0" to="gneE3" fromLane="0" toLane="0" dir="s" state="-"/>
    <connection from=":gneJ3_0" to="gneE3" fromLane="1" toLane="0" dir="s" state="M"/>
    <connection from=":gneJ3_0" to="gneE3" fromLane="2" toLane="1" dir="s" state="M"/>

</net>
