<?xml version="1.0" encoding="UTF-8"?>

<!-- generated on tis  5 jun 2018 11:16:42 by Netedit Version 0.26.0
<?xml version="1.0" encoding="UTF-8"?>

<configuration xmlns:xsi="http://www.w3.org/2001/XMLSchema-instance" xsi:noNamespaceSchemaLocation="http://sumo.dlr.de/xsd/netedit.exeConfiguration.xsd">

    <output>
        <output-file value="/home/mayara/src/plexe2.0/plexe-veins/examples/overtaking/sumocfg/opposite_10k.net.xml"/>
    </output>

    <processing>
        <no-turnarounds value="true"/>
        <offset.disable-normalization value="true"/>
    </processing>

</configuration>
-->

<net version="0.25" xmlns:xsi="http://www.w3.org/2001/XMLSchema-instance" xsi:noNamespaceSchemaLocation="http://sumo.dlr.de/xsd/net_file.xsd">

    <location netOffset="0.00,0.00" convBoundary="0.00,0.00,10000.00,0.00" origBoundary="10000000000.00,10000000000.00,-10000000000.00,-10000000000.00" projParameter="!"/>

    <edge id="gneE0" from="gneJ0" to="gneJ1" priority="1">
        <lane id="gneE0_0" index="0" speed="50.00" length="10000.00" shape="0.00,-1.65 10000.00,-1.65"/>
    </edge>
    <edge id="gneE1" from="gneJ1" to="gneJ0" priority="1" length="10000.00">
        <lane id="gneE1_0" index="0" speed="50.00" length="10000.00" shape="10000.00,1.65 0.00,1.65"/>
    </edge>

    <junction id="gneJ0" type="dead_end" x="0.00" y="0.00" incLanes="gneE1_0" intLanes="" shape="0.00,-0.05 0.00,-3.25 0.00,3.25 0.00,0.05"/>
    <junction id="gneJ1" type="dead_end" x="10000.00" y="0.00" incLanes="gneE0_0" intLanes="" shape="10000.00,0.05 10000.00,3.25 10000.00,-3.25 10000.00,-0.05"/>

</net>
