<nodes>
    <node id="a" x="0.0" y="0.0" />
    <node id="b" x="1000.0" y="0" />
</nodes>
