
<routes>
	<vType id="vtypeauto" accel="3.0" decel="5.0" sigma="0.5" length="4" minGap="0" maxSpeed="41" color="1,0,0" probability="1">
		<carFollowing-CC tauEngine="0.5" omegaN="0.2" xi="1" c1="0.5" decel="9" lanesCount="2" ccAccel="2.0"/>
	</vType>
	<vType id="car" accel="1.0" decel="1.5" sigma="0.5" length="4" minGap="0" maxSpeed="27.00" color="1,0,1" probability="1">
		<carFollowing-CC tauEngine="0.5" omegaN="0.2" xi="1" c1="0.5" decel="9" lanesCount="2" ccAccel="2.0"/>
	</vType>
  
    <route id="route1" edges="edge_0_0 edge_0_1 edge_0_4 edge_0_6 edge_0_7 edge_0_6 edge_0_7 edge_0_6 edge_0_7 edge_0_6 edge_0_7 edge_0_6 edge_0_7 edge_0_6" />
	<route id="platoon_route" edges="edge_0_0 edge_0_1 edge_0_2 edge_0_3 edge_1_0"/>

	
	<vehicle id="car" route="route1" type="car" begin="0" to="edge_0_7" departLane="1" depart="10" departPos="4250.00" departSpeed="27.00" arrivalPos="185.00"/>

</routes>
