<?xml version="1.0" encoding="UTF-8"?>

<!-- generated on ons  4 apr 2018 14:34:55 by Netedit Version 0.26.0
<?xml version="1.0" encoding="UTF-8"?>

<configuration xmlns:xsi="http://www.w3.org/2001/XMLSchema-instance" xsi:noNamespaceSchemaLocation="http://sumo.dlr.de/xsd/netedit.exeConfiguration.xsd">

    <output>
        <output-file value="/home/mayara/src/plexe2.0/plexe-veins/examples/intersection/sumocfg/intersection.net.xml"/>
    </output>

    <processing>
        <no-turnarounds value="true"/>
        <offset.disable-normalization value="true"/>
    </processing>

</configuration>
-->

<net version="0.25" xmlns:xsi="http://www.w3.org/2001/XMLSchema-instance" xsi:noNamespaceSchemaLocation="http://sumo.dlr.de/xsd/net_file.xsd">

    <location netOffset="0.00,0.00" convBoundary="-500.00,-500.00,500.00,500.00" origBoundary="10000000000.00,10000000000.00,-10000000000.00,-10000000000.00" projParameter="!"/>

    <edge id=":gneJ0_0" function="internal">
        <lane id=":gneJ0_0_0" index="0" speed="50.00" length="5.00" shape="-1.65,4.75 -1.84,3.39 -2.42,2.43 -3.39,1.84 -4.75,1.65"/>
    </edge>
    <edge id=":gneJ0_1" function="internal">
        <lane id=":gneJ0_1_0" index="0" speed="50.00" length="9.50" shape="-1.65,4.75 -1.65,-4.75"/>
    </edge>
    <edge id=":gneJ0_2" function="internal">
        <lane id=":gneJ0_2_0" index="0" speed="50.00" length="5.28" shape="-1.65,4.75 -1.25,1.95 -0.05,-0.05 0.05,-0.11"/>
    </edge>
    <edge id=":gneJ0_12" function="internal">
        <lane id=":gneJ0_12_0" index="0" speed="50.00" length="5.04" shape="0.05,-0.11 1.95,-1.25 4.75,-1.65"/>
    </edge>
    <edge id=":gneJ0_3" function="internal">
        <lane id=":gneJ0_3_0" index="0" speed="50.00" length="5.00" shape="4.75,1.65 3.39,1.84 2.43,2.42 1.84,3.39 1.65,4.75"/>
    </edge>
    <edge id=":gneJ0_4" function="internal">
        <lane id=":gneJ0_4_0" index="0" speed="50.00" length="9.50" shape="4.75,1.65 -4.75,1.65"/>
    </edge>
    <edge id=":gneJ0_5" function="internal">
        <lane id=":gneJ0_5_0" index="0" speed="50.00" length="10.32" shape="4.75,1.65 1.95,1.25 -0.05,0.05 -1.25,-1.95 -1.65,-4.75"/>
    </edge>
    <edge id=":gneJ0_6" function="internal">
        <lane id=":gneJ0_6_0" index="0" speed="50.00" length="5.00" shape="1.65,-4.75 1.84,-3.39 2.42,-2.43 3.39,-1.84 4.75,-1.65"/>
    </edge>
    <edge id=":gneJ0_7" function="internal">
        <lane id=":gneJ0_7_0" index="0" speed="50.00" length="9.50" shape="1.65,-4.75 1.65,4.75"/>
    </edge>
    <edge id=":gneJ0_8" function="internal">
        <lane id=":gneJ0_8_0" index="0" speed="50.00" length="5.28" shape="1.65,-4.75 1.25,-1.95 0.05,0.05 -0.05,0.11"/>
    </edge>
    <edge id=":gneJ0_13" function="internal">
        <lane id=":gneJ0_13_0" index="0" speed="50.00" length="5.04" shape="-0.05,0.11 -1.95,1.25 -4.75,1.65"/>
    </edge>
    <edge id=":gneJ0_9" function="internal">
        <lane id=":gneJ0_9_0" index="0" speed="50.00" length="5.00" shape="-4.75,-1.65 -3.39,-1.84 -2.43,-2.42 -1.84,-3.39 -1.65,-4.75"/>
    </edge>
    <edge id=":gneJ0_10" function="internal">
        <lane id=":gneJ0_10_0" index="0" speed="50.00" length="9.50" shape="-4.75,-1.65 4.75,-1.65"/>
    </edge>
    <edge id=":gneJ0_11" function="internal">
        <lane id=":gneJ0_11_0" index="0" speed="50.00" length="10.32" shape="-4.75,-1.65 -1.95,-1.25 0.05,-0.05 1.25,1.95 1.65,4.75"/>
    </edge>

    <edge id="gneE0" from="gneJ0" to="gneJ1" priority="1">
        <lane id="gneE0_0" index="0" speed="50.00" length="495.25" shape="4.75,-1.65 500.00,-1.65"/>
    </edge>
    <edge id="gneE1" from="gneJ0" to="gneJ2" priority="1">
        <lane id="gneE1_0" index="0" speed="50.00" length="495.25" shape="1.65,4.75 1.65,500.00"/>
    </edge>
    <edge id="gneE2" from="gneJ0" to="gneJ3" priority="1">
        <lane id="gneE2_0" index="0" speed="50.00" length="495.25" shape="-4.75,1.65 -500.00,1.65"/>
    </edge>
    <edge id="gneE3" from="gneJ0" to="gneJ4" priority="1">
        <lane id="gneE3_0" index="0" speed="50.00" length="495.25" shape="-1.65,-4.75 -1.65,-500.00"/>
    </edge>
    <edge id="gneE4" from="gneJ1" to="gneJ0" priority="1">
        <lane id="gneE4_0" index="0" speed="50.00" length="495.25" shape="500.00,1.65 4.75,1.65"/>
    </edge>
    <edge id="gneE7" from="gneJ3" to="gneJ0" priority="1">
        <lane id="gneE7_0" index="0" speed="50.00" length="495.25" shape="-500.00,-1.65 -4.75,-1.65"/>
    </edge>
    <edge id="gneE8" from="gneJ4" to="gneJ0" priority="1">
        <lane id="gneE8_0" index="0" speed="50.00" length="495.25" shape="1.65,-500.00 1.65,-4.75"/>
    </edge>
    <edge id="gneE9" from="gneJ2" to="gneJ0" priority="1">
        <lane id="gneE9_0" index="0" speed="50.00" length="495.25" shape="-1.65,500.00 -1.65,4.75"/>
    </edge>

    <junction id="gneJ0" type="priority" x="0.00" y="0.00" incLanes="gneE9_0 gneE4_0 gneE8_0 gneE7_0" intLanes=":gneJ0_0_0 :gneJ0_1_0 :gneJ0_12_0 :gneJ0_3_0 :gneJ0_4_0 :gneJ0_5_0 :gneJ0_6_0 :gneJ0_7_0 :gneJ0_13_0 :gneJ0_9_0 :gneJ0_10_0 :gneJ0_11_0" shape="-3.25,4.75 3.25,4.75 4.75,3.25 4.75,-3.25 3.25,-4.75 -3.25,-4.75 -4.75,-3.25 -4.75,3.25">
        <request index="0" response="000000000000" foes="000100010000" cont="0"/>
        <request index="1" response="000000000000" foes="111100110000" cont="0"/>
        <request index="2" response="000011000000" foes="110011110000" cont="1"/>
        <request index="3" response="000010000000" foes="100010000000" cont="0"/>
        <request index="4" response="000110000111" foes="100110000111" cont="0"/>
        <request index="5" response="011110000110" foes="011110000110" cont="0"/>
        <request index="6" response="000000000000" foes="010000000100" cont="0"/>
        <request index="7" response="000000000000" foes="110000111100" cont="0"/>
        <request index="8" response="000000000011" foes="110000110011" cont="1"/>
        <request index="9" response="000000000010" foes="000000100010" cont="0"/>
        <request index="10" response="000111000110" foes="000111100110" cont="0"/>
        <request index="11" response="000110011110" foes="000110011110" cont="0"/>
    </junction>
    <junction id="gneJ1" type="dead_end" x="500.00" y="0.00" incLanes="gneE0_0" intLanes="" shape="500.00,0.05 500.00,3.25 500.00,-3.25 500.00,-0.05"/>
    <junction id="gneJ2" type="dead_end" x="0.00" y="500.00" incLanes="gneE1_0" intLanes="" shape="-0.05,500.00 -3.25,500.00 3.25,500.00 0.05,500.00"/>
    <junction id="gneJ3" type="dead_end" x="-500.00" y="0.00" incLanes="gneE2_0" intLanes="" shape="-500.00,-0.05 -500.00,-3.25 -500.00,3.25 -500.00,0.05"/>
    <junction id="gneJ4" type="dead_end" x="0.00" y="-500.00" incLanes="gneE3_0" intLanes="" shape="0.05,-500.00 3.25,-500.00 -3.25,-500.00 -0.05,-500.00"/>

    <junction id=":gneJ0_12_0" type="internal" x="0.05" y="-0.11" incLanes=":gneJ0_2_0 gneE8_0" intLanes=":gneJ0_4_0 :gneJ0_5_0 :gneJ0_6_0 :gneJ0_7_0 :gneJ0_10_0 :gneJ0_11_0"/>
    <junction id=":gneJ0_13_0" type="internal" x="-0.05" y="0.11" incLanes=":gneJ0_8_0 gneE9_0" intLanes=":gneJ0_0_0 :gneJ0_1_0 :gneJ0_4_0 :gneJ0_5_0 :gneJ0_10_0 :gneJ0_11_0"/>

    <connection from="gneE4" to="gneE1" fromLane="0" toLane="0" via=":gneJ0_3_0" dir="r" state="m"/>
    <connection from="gneE4" to="gneE2" fromLane="0" toLane="0" via=":gneJ0_4_0" dir="s" state="m"/>
    <connection from="gneE4" to="gneE3" fromLane="0" toLane="0" via=":gneJ0_5_0" dir="l" state="m"/>
    <connection from="gneE7" to="gneE3" fromLane="0" toLane="0" via=":gneJ0_9_0" dir="r" state="m"/>
    <connection from="gneE7" to="gneE0" fromLane="0" toLane="0" via=":gneJ0_10_0" dir="s" state="m"/>
    <connection from="gneE7" to="gneE1" fromLane="0" toLane="0" via=":gneJ0_11_0" dir="l" state="m"/>
    <connection from="gneE8" to="gneE0" fromLane="0" toLane="0" via=":gneJ0_6_0" dir="r" state="M"/>
    <connection from="gneE8" to="gneE1" fromLane="0" toLane="0" via=":gneJ0_7_0" dir="s" state="M"/>
    <connection from="gneE8" to="gneE2" fromLane="0" toLane="0" via=":gneJ0_8_0" dir="l" state="m"/>
    <connection from="gneE9" to="gneE2" fromLane="0" toLane="0" via=":gneJ0_0_0" dir="r" state="M"/>
    <connection from="gneE9" to="gneE3" fromLane="0" toLane="0" via=":gneJ0_1_0" dir="s" state="M"/>
    <connection from="gneE9" to="gneE0" fromLane="0" toLane="0" via=":gneJ0_2_0" dir="l" state="m"/>

    <connection from=":gneJ0_0" to="gneE2" fromLane="0" toLane="0" dir="s" state="M"/>
    <connection from=":gneJ0_1" to="gneE3" fromLane="0" toLane="0" dir="s" state="M"/>
    <connection from=":gneJ0_2" to="gneE0" fromLane="0" toLane="0" via=":gneJ0_12_0" dir="s" state="m"/>
    <connection from=":gneJ0_12" to="gneE0" fromLane="0" toLane="0" dir="s" state="M"/>
    <connection from=":gneJ0_3" to="gneE1" fromLane="0" toLane="0" dir="s" state="M"/>
    <connection from=":gneJ0_4" to="gneE2" fromLane="0" toLane="0" dir="s" state="M"/>
    <connection from=":gneJ0_5" to="gneE3" fromLane="0" toLane="0" dir="s" state="M"/>
    <connection from=":gneJ0_6" to="gneE0" fromLane="0" toLane="0" dir="s" state="M"/>
    <connection from=":gneJ0_7" to="gneE1" fromLane="0" toLane="0" dir="s" state="M"/>
    <connection from=":gneJ0_8" to="gneE2" fromLane="0" toLane="0" via=":gneJ0_13_0" dir="s" state="m"/>
    <connection from=":gneJ0_13" to="gneE2" fromLane="0" toLane="0" dir="s" state="M"/>
    <connection from=":gneJ0_9" to="gneE3" fromLane="0" toLane="0" dir="s" state="M"/>
    <connection from=":gneJ0_10" to="gneE0" fromLane="0" toLane="0" dir="s" state="M"/>
    <connection from=":gneJ0_11" to="gneE1" fromLane="0" toLane="0" dir="s" state="M"/>

</net>
