<?xml version="1.0" encoding="UTF-8"?>

<!-- generated on 2016-09-21 14:52:49 by Netedit Version 0.27.1
<?xml version="1.0" encoding="UTF-8"?>

<configuration xmlns:xsi="http://www.w3.org/2001/XMLSchema-instance" xsi:noNamespaceSchemaLocation="http://sumo.dlr.de/xsd/netedit.exeConfiguration.xsd">

    <input>
        <sumo-net-file value="F:\sumo\freeway_offramp.net.xml"/>
    </input>

    <output>
        <output-file value="F:\sumo\freeway_offramp.net.xml"/>
    </output>

    <processing>
        <no-turnarounds value="true"/>
        <offset.disable-normalization value="true"/>
        <lefthand value="false"/>
        <junctions.corner-detail value="0"/>
    </processing>

</configuration>
-->

<net version="0.27" xmlns:xsi="http://www.w3.org/2001/XMLSchema-instance" xsi:noNamespaceSchemaLocation="http://sumo.dlr.de/xsd/net_file.xsd">

    <location netOffset="0.00,254.00" convBoundary="0.00,0.00,19400.00,254.00" origBoundary="0.00,-254.00,50000.00,0.00" projParameter="!"/>

    <edge id=":node_0_1_0" function="internal">
        <lane id=":node_0_1_0_0" index="0" speed="90.11" length="3.49" shape="9398.50,249.05 9401.50,245.75"/>
        <lane id=":node_0_1_0_1" index="1" speed="90.11" length="3.49" shape="9398.50,249.05 9401.50,249.05"/>
        <lane id=":node_0_1_0_2" index="2" speed="90.11" length="3.49" shape="9398.50,252.35 9401.50,252.35"/>
    </edge>
    <edge id=":node_0_2_0" function="internal">
        <lane id=":node_0_2_0_0" index="0" speed="57.56" length="5.16" shape="9609.49,245.75 9611.02,245.78 9612.09,245.76 9613.11,245.52 9614.49,244.91"/>
    </edge>
    <edge id=":node_0_2_1" function="internal">
        <lane id=":node_0_2_1_0" index="0" speed="90.11" length="5.00" shape="9609.49,249.05 9614.49,249.05"/>
        <lane id=":node_0_2_1_1" index="1" speed="90.11" length="5.00" shape="9609.49,252.35 9614.49,252.35"/>
    </edge>
    <edge id=":node_0_3_0" function="internal">
        <lane id=":node_0_3_0_0" index="0" speed="57.56" length="3.71" shape="9785.51,244.91 9786.50,245.39 9787.22,245.64 9787.97,245.73 9789.07,245.75"/>
    </edge>
    <edge id=":node_0_3_1" function="internal">
        <lane id=":node_0_3_1_0" index="0" speed="90.11" length="3.56" shape="9785.51,249.05 9789.07,249.05"/>
        <lane id=":node_0_3_1_1" index="1" speed="90.11" length="3.56" shape="9785.51,252.35 9789.07,252.35"/>
    </edge>
    <edge id=":node_0_4_0" function="internal">
        <lane id=":node_0_4_0_0" index="0" speed="90.11" length="4.46" shape="9998.50,245.75 10001.50,249.05"/>
        <lane id=":node_0_4_0_1" index="1" speed="90.11" length="4.46" shape="9998.50,249.05 10001.50,252.35"/>
    </edge>
    <edge id=":node_0_5_0" function="internal">
        <lane id=":node_0_5_0_0" index="0" speed="25.00" length="2.66" shape="9701.65,200.49 9700.82,201.73 9700.00,202.14 9699.78,202.03"/>
    </edge>
    <edge id=":node_0_5_2" function="internal">
        <lane id=":node_0_5_2_0" index="0" speed="25.00" length="2.16" shape="9699.78,202.03 9699.17,201.73 9698.35,200.49"/>
    </edge>
    <edge id=":node_0_5_1" function="internal">
        <lane id=":node_0_5_1_0" index="0" speed="25.00" length="4.48" shape="9696.12,204.09 9697.10,203.45 9697.79,202.64 9698.21,201.65 9698.35,200.49"/>
    </edge>
    <edge id=":node_0_6_0" function="internal">
        <lane id=":node_0_6_0_0" index="0" speed="25.00" length="0.10" shape="9698.35,4.00 9698.35,4.00"/>
    </edge>
    <edge id=":node_0_6_1" function="internal">
        <lane id=":node_0_6_1_0" index="0" speed="25.00" length="2.41" shape="9698.35,4.00 9699.18,2.76 9700.00,2.35"/>
    </edge>
    <edge id=":node_0_6_4" function="internal">
        <lane id=":node_0_6_4_0" index="0" speed="25.00" length="2.41" shape="9700.00,2.35 9700.83,2.76 9701.65,4.00"/>
    </edge>
    <edge id=":node_0_6_2" function="internal">
        <lane id=":node_0_6_2_0" index="0" speed="25.00" length="0.10" shape="9701.65,4.00 9701.65,4.00"/>
    </edge>
    <edge id=":node_0_6_3" function="internal">
        <lane id=":node_0_6_3_0" index="0" speed="25.00" length="2.41" shape="9701.65,4.00 9700.82,5.24 9700.00,5.65"/>
    </edge>
    <edge id=":node_0_6_5" function="internal">
        <lane id=":node_0_6_5_0" index="0" speed="25.00" length="2.41" shape="9700.00,5.65 9699.17,5.24 9698.35,4.00"/>
    </edge>
    <edge id=":node_0_7_0" function="internal">
        <lane id=":node_0_7_0_0" index="0" speed="25.00" length="4.82" shape="9698.35,0.00 9699.18,-1.24 9700.00,-1.65 9700.83,-1.24 9701.65,0.00"/>
    </edge>

    <edge id="absorption_0" from="node_0_6" to="node_0_7" priority="7">
        <lane id="absorption_0_0" index="0" speed="25.00" length="4.00" shape="9698.35,4.00 9698.35,0.00"/>
    </edge>
    <edge id="edge_0_0" from="node_0_0" to="node_0_1" priority="7" length="5000.00">
        <lane id="edge_0_0_0" index="0" speed="90.11" length="5000.00" shape="-0.00,249.05 9398.50,249.05"/>
        <lane id="edge_0_0_1" index="1" speed="90.11" length="5000.00" shape="-0.00,252.35 9398.50,252.35"/>
    </edge>
    <edge id="edge_0_1" from="node_0_1" to="node_0_2" priority="7">
        <lane id="edge_0_1_0" index="0" speed="90.11" length="207.99" shape="9401.50,245.75 9609.49,245.75"/>
        <lane id="edge_0_1_1" index="1" speed="90.11" length="207.99" shape="9401.50,249.05 9609.49,249.05"/>
        <lane id="edge_0_1_2" index="2" speed="90.11" length="207.99" shape="9401.50,252.35 9609.49,252.35"/>
    </edge>
    <edge id="edge_0_2" from="node_0_2" to="node_0_3" priority="7">
        <lane id="edge_0_2_0" index="0" speed="90.11" length="171.02" shape="9614.49,249.05 9785.51,249.05"/>
        <lane id="edge_0_2_1" index="1" speed="90.11" length="171.02" shape="9614.49,252.35 9785.51,252.35"/>
    </edge>
    <edge id="edge_0_3" from="node_0_3" to="node_0_4" priority="7">
        <lane id="edge_0_3_0" index="0" speed="90.11" length="209.43" shape="9789.07,245.75 9998.50,245.75"/>
        <lane id="edge_0_3_1" index="1" speed="90.11" length="209.43" shape="9789.07,249.05 9998.50,249.05"/>
        <lane id="edge_0_3_2" index="2" speed="90.11" length="209.43" shape="9789.07,252.35 9998.50,252.35"/>
    </edge>
    <edge id="edge_0_4" from="node_0_2" to="node_0_5" priority="7">
        <lane id="edge_0_4_0" index="0" speed="25.00" length="91.27" shape="9614.49,244.91 9696.12,204.09"/>
    </edge>
    <edge id="edge_0_5" from="node_0_5" to="node_0_3" priority="7">
        <lane id="edge_0_5_0" index="0" speed="25.00" length="91.27" shape="9703.88,204.09 9785.51,244.91"/>
    </edge>
    <edge id="edge_0_6" from="node_0_5" to="node_0_6" priority="7">
        <lane id="edge_0_6_0" index="0" speed="25.00" length="196.49" shape="9698.35,200.49 9698.35,4.00"/>
    </edge>
    <edge id="edge_0_7" from="node_0_6" to="node_0_5" priority="7">
        <lane id="edge_0_7_0" index="0" speed="25.00" length="196.49" shape="9701.65,4.00 9701.65,200.49"/>
    </edge>
    <edge id="edge_1_0" from="node_0_4" to="node_1_1" priority="7">
        <lane id="edge_1_0_0" index="0" speed="90.11" length="9398.50" shape="10001.50,249.05 19400.00,249.05"/>
        <lane id="edge_1_0_1" index="1" speed="90.11" length="9398.50" shape="10001.50,252.35 19400.00,252.35"/>
    </edge>
    <edge id="generation_0" from="node_0_7" to="node_0_6" priority="7">
        <lane id="generation_0_0" index="0" speed="25.00" length="4.00" shape="9701.65,0.00 9701.65,4.00"/>
    </edge>

    <junction id="node_0_0" type="unregulated" x="0.00" y="254.00" incLanes="" intLanes="" shape="-0.00,253.95 -0.00,247.45"/>
    <junction id="node_0_1" type="priority" x="9400.00" y="254.00" incLanes="edge_0_0_0 edge_0_0_1" intLanes=":node_0_1_0_0 :node_0_1_0_1 :node_0_1_0_2" shape="9401.50,253.95 9401.50,244.15 9398.50,247.45 9398.50,253.95">
        <request index="0" response="000" foes="000" cont="0"/>
        <request index="1" response="000" foes="000" cont="0"/>
        <request index="2" response="000" foes="000" cont="0"/>
    </junction>
    <junction id="node_0_2" type="priority" x="9600.00" y="254.00" incLanes="edge_0_1_0 edge_0_1_1 edge_0_1_2" intLanes=":node_0_2_0_0 :node_0_2_1_0 :node_0_2_1_1" shape="9614.49,253.95 9614.49,247.45 9615.21,246.34 9613.77,243.48 9609.49,244.15 9609.49,253.95">
        <request index="0" response="000" foes="000" cont="0"/>
        <request index="1" response="000" foes="000" cont="0"/>
        <request index="2" response="000" foes="000" cont="0"/>
    </junction>
    <junction id="node_0_3" type="priority" x="9800.00" y="254.00" incLanes="edge_0_5_0 edge_0_2_0 edge_0_2_1" intLanes=":node_0_3_0_0 :node_0_3_1_0 :node_0_3_1_1" shape="9789.07,253.95 9789.07,244.15 9786.23,243.48 9784.79,246.34 9785.51,247.45 9785.51,253.95">
        <request index="0" response="000" foes="000" cont="0"/>
        <request index="1" response="000" foes="000" cont="0"/>
        <request index="2" response="000" foes="000" cont="0"/>
    </junction>
    <junction id="node_0_4" type="priority" x="10000.00" y="254.00" incLanes="edge_0_3_0 edge_0_3_1 edge_0_3_2" intLanes=":node_0_4_0_0 :node_0_4_0_1" shape="10001.50,253.95 10001.50,247.45 9998.50,244.15 9998.50,253.95">
        <request index="0" response="00" foes="00" cont="0"/>
        <request index="1" response="00" foes="00" cont="0"/>
    </junction>
    <junction id="node_0_5" type="priority" x="9700.00" y="204.00" incLanes="edge_0_7_0 edge_0_4_0" intLanes=":node_0_5_2_0 :node_0_5_1_0" shape="9703.16,205.52 9704.59,202.66 9703.25,200.49 9696.75,200.49 9695.41,202.66 9696.84,205.52">
        <request index="0" response="10" foes="10" cont="1"/>
        <request index="1" response="00" foes="01" cont="0"/>
    </junction>
    <junction id="node_0_6" type="priority" x="9700.00" y="4.00" incLanes="edge_0_6_0 generation_0_0" intLanes=":node_0_6_0_0 :node_0_6_4_0 :node_0_6_2_0 :node_0_6_5_0" shape="9696.75,4.00 9703.25,4.00 9696.75,4.00">
        <request index="0" response="0000" foes="1000" cont="0"/>
        <request index="1" response="0100" foes="0100" cont="1"/>
        <request index="2" response="0000" foes="0010" cont="0"/>
        <request index="3" response="0001" foes="0001" cont="1"/>
    </junction>
    <junction id="node_0_7" type="priority" x="9700.00" y="0.00" incLanes="absorption_0_0" intLanes=":node_0_7_0_0" shape="9700.05,0.00 9703.25,0.00 9696.75,0.00 9699.95,0.00">
        <request index="0" response="0" foes="0" cont="0"/>
    </junction>
    <junction id="node_1_1" type="unregulated" x="19400.00" y="254.00" incLanes="edge_1_0_0 edge_1_0_1" intLanes="" shape="19400.00,247.45 19400.00,253.95"/>

    <junction id=":node_0_5_2_0" type="internal" x="9699.78" y="202.03" incLanes=":node_0_5_0_0 edge_0_4_0" intLanes=":node_0_5_1_0"/>
    <junction id=":node_0_6_4_0" type="internal" x="9700.00" y="2.35" incLanes=":node_0_6_1_0 generation_0_0" intLanes=":node_0_6_2_0"/>
    <junction id=":node_0_6_5_0" type="internal" x="9700.00" y="5.65" incLanes=":node_0_6_3_0 edge_0_6_0" intLanes=":node_0_6_0_0"/>

    <connection from="absorption_0" to="generation_0" fromLane="0" toLane="0" via=":node_0_7_0_0" dir="t" state="M"/>
    <connection from="edge_0_0" to="edge_0_1" fromLane="0" toLane="0" via=":node_0_1_0_0" dir="s" state="M"/>
    <connection from="edge_0_0" to="edge_0_1" fromLane="0" toLane="1" via=":node_0_1_0_1" dir="s" state="M"/>
    <connection from="edge_0_0" to="edge_0_1" fromLane="1" toLane="2" via=":node_0_1_0_2" dir="s" state="M"/>
    <connection from="edge_0_1" to="edge_0_4" fromLane="0" toLane="0" via=":node_0_2_0_0" dir="s" state="M"/>
    <connection from="edge_0_1" to="edge_0_2" fromLane="1" toLane="0" via=":node_0_2_1_0" dir="s" state="M"/>
    <connection from="edge_0_1" to="edge_0_2" fromLane="2" toLane="1" via=":node_0_2_1_1" dir="s" state="M"/>
    <connection from="edge_0_2" to="edge_0_3" fromLane="0" toLane="1" via=":node_0_3_1_0" dir="s" state="M"/>
    <connection from="edge_0_2" to="edge_0_3" fromLane="1" toLane="2" via=":node_0_3_1_1" dir="s" state="M"/>
    <connection from="edge_0_3" to="edge_1_0" fromLane="0" toLane="0" via=":node_0_4_0_0" dir="s" state="M"/>
    <connection from="edge_0_3" to="edge_1_0" fromLane="1" toLane="1" via=":node_0_4_0_1" dir="s" state="M"/>
    <connection from="edge_0_4" to="edge_0_6" fromLane="0" toLane="0" via=":node_0_5_1_0" dir="r" state="M"/>
    <connection from="edge_0_5" to="edge_0_3" fromLane="0" toLane="0" via=":node_0_3_0_0" dir="s" state="M"/>
    <connection from="edge_0_6" to="absorption_0" fromLane="0" toLane="0" via=":node_0_6_0_0" dir="s" state="M"/>
    <connection from="edge_0_6" to="edge_0_7" fromLane="0" toLane="0" via=":node_0_6_1_0" dir="t" state="m"/>
    <connection from="edge_0_7" to="edge_0_6" fromLane="0" toLane="0" via=":node_0_5_0_0" dir="t" state="m"/>
    <connection from="generation_0" to="edge_0_7" fromLane="0" toLane="0" via=":node_0_6_2_0" dir="s" state="M"/>
    <connection from="generation_0" to="absorption_0" fromLane="0" toLane="0" via=":node_0_6_3_0" dir="t" state="m"/>

    <connection from=":node_0_1_0" to="edge_0_1" fromLane="0" toLane="0" dir="s" state="M"/>
    <connection from=":node_0_1_0" to="edge_0_1" fromLane="1" toLane="1" dir="s" state="M"/>
    <connection from=":node_0_1_0" to="edge_0_1" fromLane="2" toLane="2" dir="s" state="M"/>
    <connection from=":node_0_2_0" to="edge_0_4" fromLane="0" toLane="0" dir="s" state="M"/>
    <connection from=":node_0_2_1" to="edge_0_2" fromLane="0" toLane="0" dir="s" state="M"/>
    <connection from=":node_0_2_1" to="edge_0_2" fromLane="1" toLane="1" dir="s" state="M"/>
    <connection from=":node_0_3_0" to="edge_0_3" fromLane="0" toLane="0" dir="s" state="M"/>
    <connection from=":node_0_3_1" to="edge_0_3" fromLane="0" toLane="1" dir="s" state="M"/>
    <connection from=":node_0_3_1" to="edge_0_3" fromLane="1" toLane="2" dir="s" state="M"/>
    <connection from=":node_0_4_0" to="edge_1_0" fromLane="0" toLane="0" dir="s" state="M"/>
    <connection from=":node_0_4_0" to="edge_1_0" fromLane="1" toLane="1" dir="s" state="M"/>
    <connection from=":node_0_5_0" to="edge_0_6" fromLane="0" toLane="0" via=":node_0_5_2_0" dir="s" state="m"/>
    <connection from=":node_0_5_2" to="edge_0_6" fromLane="0" toLane="0" dir="s" state="M"/>
    <connection from=":node_0_5_1" to="edge_0_6" fromLane="0" toLane="0" dir="s" state="M"/>
    <connection from=":node_0_6_0" to="absorption_0" fromLane="0" toLane="0" dir="s" state="M"/>
    <connection from=":node_0_6_1" to="edge_0_7" fromLane="0" toLane="0" via=":node_0_6_4_0" dir="s" state="m"/>
    <connection from=":node_0_6_4" to="edge_0_7" fromLane="0" toLane="0" dir="s" state="M"/>
    <connection from=":node_0_6_2" to="edge_0_7" fromLane="0" toLane="0" dir="s" state="M"/>
    <connection from=":node_0_6_3" to="absorption_0" fromLane="0" toLane="0" via=":node_0_6_5_0" dir="s" state="m"/>
    <connection from=":node_0_6_5" to="absorption_0" fromLane="0" toLane="0" dir="s" state="M"/>
    <connection from=":node_0_7_0" to="generation_0" fromLane="0" toLane="0" dir="s" state="M"/>

</net>
