<?xml version="1.0" encoding="iso-8859-1"?>
<net version="0.13" xmlns:xsi="http://www.w3.org/2001/XMLSchema-instance" xsi:noNamespaceSchemaLocation="http://sumo.sf.net/xsd/net_file.xsd">

    <location netOffset="0.00,254.00" convBoundary="0.00,0.00,50000.00,254.00" origBoundary="0.00,-254.00,50000.00,0.00" projParameter="!"/>

 
    <edge id="edge_0_0" from="node_0_0" to="node_0_1" priority="7">
        <lane id="edge_0_0_0" index="0" speed="33.3" length="9398.50" shape="0.00,242.45 9398.50,242.45"/>
        <lane id="edge_0_0_1" index="1" speed="33.3" length="9398.50" shape="0.00,245.75 9398.50,245.75"/>
        <lane id="edge_0_0_2" index="2" speed="33.3" length="9398.50" shape="0.00,249.05 9398.50,249.05"/>
        <lane id="edge_0_0_3" index="3" speed="33.3" length="9398.50" shape="0.00,252.35 9398.50,252.35"/>
    </edge>
  <!--  <edge id="edge_0_1" from="node_0_0" to="node_0_1" priority="7">
        <lane id="edge_0_1_0" index="0" speed="33.3" length="10000" shape="9398.50,242.45 19398.50,242.45"/>
        <lane id="edge_0_1_1" index="1" speed="33.3" length="10000" shape="9398.50,245.75 19398.50,245.75"/>
        <lane id="edge_0_1_2" index="2" speed="33.3" length="10000" shape="9398.50,249.05 19398.50,249.05"/>
        <lane id="edge_0_1_3" index="3" speed="33.3" length="10000" shape="9398.50,252.35 19398.50,252.35"/>
    </edge>


	<connection from="edge_0_0" to="edge_0_1" fromLane="0" toLane="0" dir="s" state="M"/>
	<connection from="edge_0_0" to="edge_0_1" fromLane="1" toLane="1" dir="s" state="M"/>
	<connection from="edge_0_0" to="edge_0_1" fromLane="2" toLane="2" dir="s" state="M"/>
	<connection from="edge_0_0" to="edge_0_1" fromLane="3" toLane="3" dir="s" state="M"/>    -->  

</net>
