<routes>
	<vType id="vtypeauto" vClass="passenger" accel="2.5" decel="6.0" sigma="0.5" length="4" minGap="0" maxSpeed="41" color="0,0,1" probability="1" >
		<carFollowing-CC tauEngine="0.5" omegaN="0.2" xi="1" c1="0.5" decel="5" lanesCount="4" ccAccel="1.5"/>
	</vType>
	
	<!--  
	vClass="passenger" vClass="trailer" vClass="bus" width="2.3"
	-->
	
	<route id="platoon_route" edges="edge_0_0"/>
	<!--<flow id="platoon" route="platoon_route" type="vtypeauto" begin="0" period="1" departLane="0" number="8" departSpeed="27.77"/>-->
</routes>
